# generated using pymatgen
data_LiSi2
_symmetry_space_group_name_H-M   'P 1'
_cell_length_a   4.46959062
_cell_length_b   5.46735246
_cell_length_c   4.46959062
_cell_angle_alpha   52.29350761
_cell_angle_beta   75.41298478
_cell_angle_gamma   52.29350761
_symmetry_Int_Tables_number   1
_chemical_formula_structural   LiSi2
_chemical_formula_sum   'Li1 Si2'
_cell_volume   67.04909269
_cell_formula_units_Z   1
loop_
 _symmetry_equiv_pos_site_id
 _symmetry_equiv_pos_as_xyz
  1  'x, y, z'
loop_
 _atom_site_type_symbol
 _atom_site_label
 _atom_site_symmetry_multiplicity
 _atom_site_fract_x
 _atom_site_fract_y
 _atom_site_fract_z
 _atom_site_occupancy
  Si  Si0  1  0.00000000  0.00000000  0.00000000  1
  Si  Si1  1  0.25000000  0.25000000  0.25000000  1
  Li  Li2  1  0.50000000  0.50000000  0.50000000  1
